%mem=50gb
%nproc=30
#p rhf/cc-pvqz test neo=gen gfinput guess=print 
# 
iop33(3=2,4=2,5=2) iop(5/73=1,5/81=0) nosymm

hcn

0,1
c        0.000000    0.000000   -0.49687143
h        0.000000    0.000000   -1.56687143
n        0.000000    0.000000    0.64972857

      2 0
 S   1   1.00
     28.950      1.000000
 S   1   1.00
     17.943      1.000000
 S   1   1.00
     10.645      1.000000
 S   1   1.00
     5.973       1.000000
 P   1   1.00
     23.308      1.000000
 P   1   1.00
     14.701      1.000000
 P   1   1.00
     7.604       1.000000
 D   1   1.00
     19.787      1.000000
 D   1   1.00
     9.011       1.000000
 F   1   1.00
     10.914      1.000000
 ****
  
