%mem=50gb
%nproc=30
#p rhf/cc-pvdz test neo=gen gfinput guess=print 
# 
iop33(3=2,4=2,5=2) iop(5/73=1,5/81=0) nosymm

fhf-

-1,1
 F      0.00000000    0.0000000000      -1.16407                       
 F      0.00000000    0.0000000000       1.16407                       
 H      0.00000000    0.0000000000       0.00000 

      3 0
 S   1   1.00
     31.997      1.000000
 S   1   1.00
     16.010      1.000000
 S   1   1.00
     8.734      1.000000
 S   1   1.00
     1.957       1.000000
 P   1   1.00
     24.028      1.000000
 P   1   1.00
     13.795      1.000000
 P   1   1.00
     9.438       1.000000
 D   1   1.00
     19.016      1.000000
 D   1   1.00
     10.524       1.000000
 ****

