%subst l301 ref
#p rhf/gen test neo=gen gfinput guess=print nosymm 

h2co

0,1
c        0.000000    0.000000    0.000000
o        0.000000    0.000000    1.220000
h        0.935307    0.000000   -0.540000
h       -0.935307    0.000000   -0.540000

      1 0
 S   3 1.00       0.000000000000
      0.7161683735D+02  0.1543289673D+00
      0.1304509632D+02  0.5353281423D+00
      0.3530512160D+01  0.4446345422D+00
 SP   3 1.00       0.000000000000
      0.2941249355D+01 -0.9996722919D-01  0.1559162750D+00
      0.6834830964D+00  0.3995128261D+00  0.6076837186D+00
      0.2222899159D+00  0.7001154689D+00  0.3919573931D+00
 ****
      2 0
 S   3 1.00       0.000000000000
      0.1307093214D+03  0.1543289673D+00
      0.2380886605D+02  0.5353281423D+00
      0.6443608313D+01  0.4446345422D+00
 SP   3 1.00       0.000000000000
      0.5033151319D+01 -0.9996722919D-01  0.1559162750D+00
      0.1169596125D+01  0.3995128261D+00  0.6076837186D+00
      0.3803889600D+00  0.7001154689D+00  0.3919573931D+00
 ****
      3 0
 S   3 1.00       0.000000000000
      0.3425250914D+01  0.1543289673D+00
      0.6239137298D+00  0.5353281423D+00
      0.1688554040D+00  0.4446345422D+00
 ****
      4 0
 S   3 1.00       0.000000000000
      0.3425250914D+01  0.1543289673D+00
      0.6239137298D+00  0.5353281423D+00
      0.1688554040D+00  0.4446345422D+00
 ****
  
      3 0
 SP   1 1.00       0.000000000000
      0.2000000000D+01  0.1000000000D+01  0.1000000000D+01
 D   1 1.00       0.000000000000
      0.2000000000D+01  0.1000000000D+01
 SP   1 1.00       0.000000000000
      0.1414213562D+01  0.1000000000D+01  0.1000000000D+01
 D   1 1.00       0.000000000000
      0.1414213562D+01  0.1000000000D+01
 ****
      4 0
 SP   1 1.00       0.000000000000
      0.2000000000D+01  0.1000000000D+01  0.1000000000D+01
 D   1 1.00       0.000000000000
      0.2000000000D+01  0.1000000000D+01
 SP   1 1.00       0.000000000000
      0.1414213562D+01  0.1000000000D+01  0.1000000000D+01
 D   1 1.00       0.000000000000
      0.1414213562D+01  0.1000000000D+01
 ****
  
