%mem=50gb
%nproc=25
#p rhf/cc-pvdz test neo=gen gfinput guess=print
#
iop33(3=2,4=2,5=2) iop(5/73=0,5/81=0) nosymm

fhf-

-1,1
 F      0.00000000    0.0000000000      -1.16407                       
 F      0.00000000    0.0000000000       1.16407                       
 H      0.00000000    0.0000000000       0.00000 

      3 0
 S   1   1.00
     28.950      1.000000
 S   1   1.00
     17.943      1.000000
 S   1   1.00
     10.645      1.000000
 S   1   1.00
     5.973       1.000000
 P   1   1.00
     23.308      1.000000
 P   1   1.00
     14.701      1.000000
 P   1   1.00
     7.604       1.000000
 D   1   1.00
     19.787      1.000000
 D   1   1.00
     9.011       1.000000
 F   1   1.00
     20.985      1.000000
 F   1   1.00
     10.914      1.000000
 ****

