%mem=29gb
%nproc=15
#p rhf/cc-pvtz test neo=gen gfinput guess=print 
# 
iop33(3=2,4=2,5=2) iop(5/73=0,5/81=0) nosymm

h2co

0,1
c        0.000000    0.000000    0.000000
o        0.000000    0.000000    1.220000
h        0.935307    0.000000   -0.540000
h       -0.935307    0.000000   -0.540000

      3 0
 S   1   1.00
     31.997      1.000000
 S   1   1.00
     16.010      1.000000
 S   1   1.00
     8.734      1.000000
 S   1   1.00
     1.957       1.000000
 P   1   1.00
     24.028      1.000000
 P   1   1.00
     13.795      1.000000
 P   1   1.00
     9.438       1.000000
 D   1   1.00
     19.016      1.000000
 D   1   1.00
     10.524       1.000000
 ****
      4 0
 S   1   1.00
     31.997      1.000000
 S   1   1.00
     16.010      1.000000
 S   1   1.00
     8.734      1.000000
 S   1   1.00
     1.957       1.000000
 P   1   1.00
     24.028      1.000000
 P   1   1.00
     13.795      1.000000
 P   1   1.00
     9.438       1.000000
 D   1   1.00
     19.016      1.000000
 D   1   1.00
     10.524       1.000000
  ****
  
